sim: command line: ./bin/sim-outorder -config ./configs/task1/base1.txt -redir:sim ./configs/task1/Stats_base1_qsort.txt ./apps/qsort/qsort_small ./apps/qsort/input_small.dat 

sim: simulation started @ Mon Nov 26 20:57:08 2018

sim: ** starting performance simulation **

sim: ** simulation statistics **

# Statistics on Performance:

sim_IPC                      0.0667 # instructions per cycle
sim_CPI                     14.9860 # cycles per instruction
sim_cycle                 627897062 # total simulation time in cycles
sim_elapsed_time                 58 # total simulation time in seconds
sim_inst_rate           722397.2414 # simulation speed (in insts/sec)
sim_exec_BW                  0.0667 # total instructions (mis-spec + committed) per cycle
sim_IPB                      6.2317 # instruction per branch

# Statistics on  Commited and Executed instructions:

sim_num_insn               41899040 # total number of instructions committed
sim_total_insn             41899039 # total number of instructions executed
sim_num_icmp               13254004 # total number of integer insts committed
sim_total_icmp             13254017 # total number of integer insts executed
sim_num_fcmp                      0 # total number of FP insts committed
sim_total_fcmp                    0 # total number of FP insts executed
sim_num_refs               21921425 # total number of loads and stores committed
sim_total_refs             21921425 # total number of loads and stores executed
sim_num_branches            6723577 # total number of branches committed
sim_total_branches          6723577 # total number of branches executed
freq_icmp_exe          31.63 # Freqeuncy (%) of executed integer instructions
freq_fcmp_exe           0.00 # Freqeuncy (%) of executed FP instructions
freq_refs_exe          52.32 # Freqeuncy (%) of executed loads and stores
freq_branches_exe      16.05 # Freqeuncy (%) of executed branch instructions

# Statistics on Processor Core :

busy_int_alu               18406302 # Cyles integer ALU(s) is busy
busy_int_mul                  73759 # Cyles integer MULT/DIV(s) is busy
busy_fp_alu                       0 # Cyles FP ALU(s) is busy
busy_fp_mul                       0 # Cyles FP MULT/DIV(s) is busy
IFQ_count                 720844878 # cumulative IFQ occupancy
IFQ_fcount                156573468 # cumulative IFQ full count
ifq_occupancy                1.1480 # avg IFQ occupancy (insn's)
ifq_rate                     0.0667 # avg IFQ dispatch rate (insn/cycle)
ifq_latency                 17.2043 # avg IFQ occupant latency (cycle's)
ifq_full                     0.2494 # fraction of time (cycle's) IFQ was full
RUU_count                 909121480 # cumulative RUU occupancy
RUU_fcount                        0 # cumulative RUU full count
ruu_occupancy                1.4479 # avg RUU occupancy (insn's)
ruu_rate                     0.0667 # avg RUU dispatch rate (insn/cycle)
ruu_latency                 21.6979 # avg RUU occupant latency (cycle's)
ruu_full                     0.0000 # fraction of time (cycle's) RUU was full
LSQ_count                 690887420 # cumulative LSQ occupancy
LSQ_fcount                   590885 # cumulative LSQ full count
lsq_occupancy                1.1003 # avg LSQ occupancy (insn's)
lsq_rate                     0.0667 # avg LSQ dispatch rate (insn/cycle)
lsq_latency                 16.4893 # avg LSQ occupant latency (cycle's)
lsq_full                     0.0009 # fraction of time (cycle's) LSQ was full

# Statistics on Branch Predictors :

bpred_nottaken.lookups      9321233 # total number of bpred lookups
bpred_nottaken.updates      6723577 # total number of updates
bpred_nottaken.addr_hits      2119748 # total number of address-predicted hits
bpred_nottaken.dir_hits      2119748 # total number of direction-predicted hits (includes addr-hits)
bpred_nottaken.misses       4603829 # total number of misses
bpred_nottaken.pred_accuracy    0.5061 # branch prediction rate
bpred_nottaken.bpred_addr_rate    0.3153 # branch address-prediction rate (i.e., addr-hits/updates)
bpred_nottaken.bpred_dir_rate    0.3153 # branch direction-prediction rate (i.e., all-hits/updates)
bpred_nottaken.used_ras.PP            0 # total number of RAS predictions used
bpred_nottaken.ras_hits.PP            0 # total number of RAS hits
bpred_nottaken.ras_rate.PP <error: divide by zero> # RAS prediction rate (i.e., RAS hits/used RAS)

# Statistics on Level-1 and Level-2 Caches :

il1.accesses               57256339 # total number of accesses
il1.hits                   54760258 # total number of hits
il1.misses                  2496081 # total number of misses
il1.miss_rate           0.04 # miss rate (i.e., misses/ref)
dl1.accesses               21921425 # total number of accesses
dl1.hits                   20325679 # total number of hits
dl1.misses                  1595746 # total number of misses
dl1.miss_rate           0.07 # miss rate (i.e., misses/ref)

