sim: command line: ./bin/sim-outorder -config ./configs/task1/base1.txt -redir:sim ./configs/task1/Stats_base1_gsm-untoast.txt ./apps/gsm-untoast/untoast -fps -c ./apps/gsm-untoast/small.au.run.gsm 

sim: simulation started @ Mon Nov 26 20:58:06 2018

sim: ** starting performance simulation **
warning: syscall: sigvec ignored
warning: syscall: sigvec ignored
warning: syscall: sigvec ignored
warning: syscall: sigvec ignored
warning: syscall: sigvec ignored

sim: ** simulation statistics **

# Statistics on Performance:

sim_IPC                      0.2987 # instructions per cycle
sim_CPI                      3.3477 # cycles per instruction
sim_cycle                  39181293 # total simulation time in cycles
sim_elapsed_time                  7 # total simulation time in seconds
sim_inst_rate          1672002.1429 # simulation speed (in insts/sec)
sim_exec_BW                  0.2987 # total instructions (mis-spec + committed) per cycle
sim_IPB                      5.6201 # instruction per branch

# Statistics on  Commited and Executed instructions:

sim_num_insn               11704015 # total number of instructions committed
sim_total_insn             11704014 # total number of instructions executed
sim_num_icmp                8190647 # total number of integer insts committed
sim_total_icmp              8190664 # total number of integer insts executed
sim_num_fcmp                      0 # total number of FP insts committed
sim_total_fcmp                    0 # total number of FP insts executed
sim_num_refs                1430798 # total number of loads and stores committed
sim_total_refs              1430798 # total number of loads and stores executed
sim_num_branches            2082527 # total number of branches committed
sim_total_branches          2082527 # total number of branches executed
freq_icmp_exe          69.98 # Freqeuncy (%) of executed integer instructions
freq_fcmp_exe           0.00 # Freqeuncy (%) of executed FP instructions
freq_refs_exe          12.22 # Freqeuncy (%) of executed loads and stores
freq_branches_exe      17.79 # Freqeuncy (%) of executed branch instructions

# Statistics on Processor Core :

busy_int_alu                9341320 # Cyles integer ALU(s) is busy
busy_int_mul                1106473 # Cyles integer MULT/DIV(s) is busy
busy_fp_alu                       0 # Cyles FP ALU(s) is busy
busy_fp_mul                       0 # Cyles FP MULT/DIV(s) is busy
IFQ_count                  36074957 # cumulative IFQ occupancy
IFQ_fcount                  2302855 # cumulative IFQ full count
ifq_occupancy                0.9207 # avg IFQ occupancy (insn's)
ifq_rate                     0.2987 # avg IFQ dispatch rate (insn/cycle)
ifq_latency                  3.0823 # avg IFQ occupant latency (cycle's)
ifq_full                     0.0588 # fraction of time (cycle's) IFQ was full
RUU_count                  42932691 # cumulative RUU occupancy
RUU_fcount                        0 # cumulative RUU full count
ruu_occupancy                1.0957 # avg RUU occupancy (insn's)
ruu_rate                     0.2987 # avg RUU dispatch rate (insn/cycle)
ruu_latency                  3.6682 # avg RUU occupant latency (cycle's)
ruu_full                     0.0000 # fraction of time (cycle's) RUU was full
LSQ_count                   7484056 # cumulative LSQ occupancy
LSQ_fcount                        0 # cumulative LSQ full count
lsq_occupancy                0.1910 # avg LSQ occupancy (insn's)
lsq_rate                     0.2987 # avg LSQ dispatch rate (insn/cycle)
lsq_latency                  0.6394 # avg LSQ occupant latency (cycle's)
lsq_full                     0.0000 # fraction of time (cycle's) LSQ was full

# Statistics on Branch Predictors :

bpred_nottaken.lookups      2711127 # total number of bpred lookups
bpred_nottaken.updates      2082527 # total number of updates
bpred_nottaken.addr_hits       434470 # total number of address-predicted hits
bpred_nottaken.dir_hits       434470 # total number of direction-predicted hits (includes addr-hits)
bpred_nottaken.misses       1648057 # total number of misses
bpred_nottaken.pred_accuracy    0.3921 # branch prediction rate
bpred_nottaken.bpred_addr_rate    0.2086 # branch address-prediction rate (i.e., addr-hits/updates)
bpred_nottaken.bpred_dir_rate    0.2086 # branch direction-prediction rate (i.e., all-hits/updates)
bpred_nottaken.used_ras.PP            0 # total number of RAS predictions used
bpred_nottaken.ras_hits.PP            0 # total number of RAS hits
bpred_nottaken.ras_rate.PP <error: divide by zero> # RAS prediction rate (i.e., RAS hits/used RAS)

# Statistics on Level-1 and Level-2 Caches :

il1.accesses               16976887 # total number of accesses
il1.hits                   16883812 # total number of hits
il1.misses                    93075 # total number of misses
il1.miss_rate           0.01 # miss rate (i.e., misses/ref)
dl1.accesses                1430798 # total number of accesses
dl1.hits                    1422102 # total number of hits
dl1.misses                     8696 # total number of misses
dl1.miss_rate           0.01 # miss rate (i.e., misses/ref)

