sim: command line: ./bin/sim-outorder -config ./configs/task1/base1.txt -redir:sim ./configs/task1/Stats_base1_dijkstra.txt ./apps/dijkstra/dijkstra_small ./apps/dijkstra/input.dat 

sim: simulation started @ Mon Nov 26 20:56:16 2018

sim: ** starting performance simulation **

sim: ** simulation statistics **

# Statistics on Performance:

sim_IPC                      0.1146 # instructions per cycle
sim_CPI                      8.7264 # cycles per instruction
sim_cycle                 478919426 # total simulation time in cycles
sim_elapsed_time                 51 # total simulation time in seconds
sim_inst_rate          1076113.1176 # simulation speed (in insts/sec)
sim_exec_BW                  0.1146 # total instructions (mis-spec + committed) per cycle
sim_IPB                      5.5893 # instruction per branch

# Statistics on  Commited and Executed instructions:

sim_num_insn               54881769 # total number of instructions committed
sim_total_insn             54881768 # total number of instructions executed
sim_num_icmp               25930278 # total number of integer insts committed
sim_total_icmp             25930509 # total number of integer insts executed
sim_num_fcmp                      0 # total number of FP insts committed
sim_total_fcmp                    0 # total number of FP insts executed
sim_num_refs               19131943 # total number of loads and stores committed
sim_total_refs             19131943 # total number of loads and stores executed
sim_num_branches            9819077 # total number of branches committed
sim_total_branches          9819077 # total number of branches executed
freq_icmp_exe          47.25 # Freqeuncy (%) of executed integer instructions
freq_fcmp_exe           0.00 # Freqeuncy (%) of executed FP instructions
freq_refs_exe          34.86 # Freqeuncy (%) of executed loads and stores
freq_branches_exe      17.89 # Freqeuncy (%) of executed branch instructions

# Statistics on Processor Core :

busy_int_alu               35399476 # Cyles integer ALU(s) is busy
busy_int_mul                 293256 # Cyles integer MULT/DIV(s) is busy
busy_fp_alu                       0 # Cyles FP ALU(s) is busy
busy_fp_mul                       0 # Cyles FP MULT/DIV(s) is busy
IFQ_count                 688840164 # cumulative IFQ occupancy
IFQ_fcount                142782137 # cumulative IFQ full count
ifq_occupancy                1.4383 # avg IFQ occupancy (insn's)
ifq_rate                     0.1146 # avg IFQ dispatch rate (insn/cycle)
ifq_latency                 12.5513 # avg IFQ occupant latency (cycle's)
ifq_full                     0.2981 # fraction of time (cycle's) IFQ was full
RUU_count                 422662085 # cumulative RUU occupancy
RUU_fcount                        0 # cumulative RUU full count
ruu_occupancy                0.8825 # avg RUU occupancy (insn's)
ruu_rate                     0.1146 # avg RUU dispatch rate (insn/cycle)
ruu_latency                  7.7013 # avg RUU occupant latency (cycle's)
ruu_full                     0.0000 # fraction of time (cycle's) RUU was full
LSQ_count                 236939634 # cumulative LSQ occupancy
LSQ_fcount                     2660 # cumulative LSQ full count
lsq_occupancy                0.4947 # avg LSQ occupancy (insn's)
lsq_rate                     0.1146 # avg LSQ dispatch rate (insn/cycle)
lsq_latency                  4.3173 # avg LSQ occupant latency (cycle's)
lsq_full                     0.0000 # fraction of time (cycle's) LSQ was full

# Statistics on Branch Predictors :

bpred_nottaken.lookups     11803602 # total number of bpred lookups
bpred_nottaken.updates      9819077 # total number of updates
bpred_nottaken.addr_hits      3821446 # total number of address-predicted hits
bpred_nottaken.dir_hits      3821446 # total number of direction-predicted hits (includes addr-hits)
bpred_nottaken.misses       5997631 # total number of misses
bpred_nottaken.pred_accuracy    0.4919 # branch prediction rate
bpred_nottaken.bpred_addr_rate    0.3892 # branch address-prediction rate (i.e., addr-hits/updates)
bpred_nottaken.bpred_dir_rate    0.3892 # branch direction-prediction rate (i.e., all-hits/updates)
bpred_nottaken.used_ras.PP            0 # total number of RAS predictions used
bpred_nottaken.ras_hits.PP            0 # total number of RAS hits
bpred_nottaken.ras_rate.PP <error: divide by zero> # RAS prediction rate (i.e., RAS hits/used RAS)

# Statistics on Level-1 and Level-2 Caches :

il1.accesses               78413460 # total number of accesses
il1.hits                   76841878 # total number of hits
il1.misses                  1571582 # total number of misses
il1.miss_rate           0.02 # miss rate (i.e., misses/ref)
dl1.accesses               19131908 # total number of accesses
dl1.hits                   18546354 # total number of hits
dl1.misses                   585554 # total number of misses
dl1.miss_rate           0.03 # miss rate (i.e., misses/ref)

